#	Name:			PQQ
#	Creation time:		Fri Nov 14 16:52:37 1997

#	Modification time:	Fri Nov 14 16:52:37 1997

@<TRIPOS>MOLECULE
PQQ
   24    26     1     0     0
SMALL
NO_CHARGES


@<TRIPOS>ATOM
      1 N1        -16.1920   17.8820   13.5410 N.pl3     1 PQQ1        0.0000 
      2 C2        -15.7570   17.0390   12.5390 C.2       1 PQQ1        0.0000 
      3 C2X       -16.6460   16.1640   11.7100 C.2       1 PQQ1        0.0000 
      4 O2A       -17.8600   16.2170   11.9530 O.co2     1 PQQ1        0.0000 
      5 O2B       -16.1160   15.4410   10.8390 O.co2     1 PQQ1        0.0000 
      6 C3        -14.3950   17.1240   12.4450 C.2       1 PQQ1        0.0000 
      7 C3A       -13.9970   18.0560   13.4200 C.2       1 PQQ1        0.0000 
      8 C1A       -15.1460   18.5170   14.0870 C.2       1 PQQ1        0.0000 
      9 C4        -12.6770   18.5440   13.7010 C.2       1 PQQ1        0.0000 
     10 O4        -11.6450   18.0760   13.3110 O.2       1 PQQ1        0.0000 
     11 C5        -12.6270   19.6450   14.7730 C.2       1 PQQ1        0.0000 
     12 O5        -11.5290   20.0850   15.1060 O.2       1 PQQ1        0.0000 
     13 C6A       -13.8960   20.0930   15.4390 C.ar      1 PQQ1        0.0000 
     14 N6        -13.6480   20.9910   16.3780 N.ar      1 PQQ1        0.0000 
     15 C7        -14.6680   21.4230   17.1130 C.ar      1 PQQ1        0.0000 
     16 C7X       -14.3340   22.3710   18.2540 C.2       1 PQQ1        0.0000 
     17 O7A       -13.1840   22.8530   18.2440 O.co2     1 PQQ1        0.0000 
     18 O7B       -15.1880   22.5830   19.1430 O.co2     1 PQQ1        0.0000 
     19 C8        -15.9520   20.9760   16.9150 C.ar      1 PQQ1        0.0000 
     20 C9        -16.2520   20.0210   15.9190 C.ar      1 PQQ1        0.0000 
     21 C9X       -17.6810   19.4860   15.8400 C.2       1 PQQ1        0.0000 
     22 O9A       -18.3980   19.6850   16.8420 O.co2     1 PQQ1        0.0000 
     23 O9B       -18.0910   18.9700   14.7880 O.co2     1 PQQ1        0.0000 
     24 C9A       -15.1630   19.5550   15.1410 C.ar      1 PQQ1        0.0000 
@<TRIPOS>BOND
     1    1    2 1    
     2    1    8 1    
     3    2    3 1    
     4    2    6 2    
     5    3    4 2    
     6    3    5 1    
     7    6    7 1    
     8    7    8 2    
     9    7    9 1    
    10    8   24 1    
    11    9   10 2    
    12    9   11 1    
    13   11   12 2    
    14   11   13 1    
    15   13   14 ar   
    16   13   24 ar   
    17   14   15 ar   
    18   15   16 1    
    19   15   19 ar   
    20   16   17 2    
    21   16   18 1    
    22   19   20 ar   
    23   20   21 1    
    24   20   24 ar   
    25   21   22 2    
    26   21   23 1    
@<TRIPOS>SUBSTRUCTURE
     1 PQQ1        1 PERM              0 ****  ****    0 ROOT 
#	Name:			CLM
#	Creation time:		Fri Nov 14 16:52:40 1997

#	Modification time:	Fri Nov 14 16:52:40 1997

@<TRIPOS>MOLECULE
CLM
   20    20     1     0     0
SMALL
NO_CHARGES


@<TRIPOS>ATOM
      1 C1          1.1530   17.1150   14.2980 C.3       1 CLM1        0.0000 
      2 CL1A        2.0330   16.7450   12.8850 Cl        1 CLM1        0.0000 
      3 CL1B        0.2160   18.5650   13.9090 Cl        1 CLM1        0.0000 
      4 C2          0.0530   15.9770   14.4550 C.2       1 CLM1        0.0000 
      5 O2         -0.5480   15.6040   13.4830 O.2       1 CLM1        0.0000 
      6 N2         -0.1030   15.6330   15.7220 N.am      1 CLM1        0.0000 
      7 C3         -1.0030   14.5950   16.2060 C.3       1 CLM1        0.0000 
      8 C4         -1.8980   15.1400   17.3060 C.3       1 CLM1        0.0000 
      9 O4         -2.7310   14.0060   17.7680 O.3       1 CLM1        0.0000 
     10 C5         -0.2520   13.3100   16.5310 C.3       1 CLM1        0.0000 
     11 O5          0.5870   13.5500   17.6550 O.3       1 CLM1        0.0000 
     12 C6          0.5950   12.9620   15.3460 C.ar      1 CLM1        0.0000 
     13 C7         -0.0480   12.1220   14.3530 C.ar      1 CLM1        0.0000 
     14 C8          0.6680   11.6280   13.2930 C.ar      1 CLM1        0.0000 
     15 C9          1.9570   11.9390   13.2140 C.ar      1 CLM1        0.0000 
     16 N9          2.8370   11.5150   12.1000 N.2       1 CLM1        0.0000 
     17 O9A         3.8700   12.0930   11.9320 O.2       1 CLM1        0.0000 
     18 O9B         2.4200   10.5890   11.4030 O.2       1 CLM1        0.0000 
     19 C10         2.6230   12.8200   14.1060 C.ar      1 CLM1        0.0000 
     20 C11         1.9290   13.2890   15.2080 C.ar      1 CLM1        0.0000 
@<TRIPOS>BOND
     1    1    2 1    
     2    1    3 1    
     3    1    4 1    
     4    4    5 2    
     5    4    6 am   
     6    6    7 1    
     7    7    8 1    
     8    7   10 1    
     9    8    9 1    
    10   10   11 1    
    11   10   12 1    
    12   12   13 ar   
    13   12   20 ar   
    14   13   14 ar   
    15   14   15 ar   
    16   15   16 1    
    17   15   19 ar   
    18   16   17 2    
    19   16   18 2    
    20   19   20 ar   
@<TRIPOS>SUBSTRUCTURE
     1 CLM1        1 PERM              0 ****  ****    0 ROOT 
@<TRIPOS>MOLECULE
3cpa_
   17    17     1     1     0
SMALL
USER_CHARGES
INVALID_CHARGES

@<TRIPOS>ATOM
      1 N1         -3.5067   29.0420   -4.5269 N.3       1 UNNAMED    0.0000
      2 C2         -3.8057   29.8028   -5.7486 C.3       1 UNNAMED    0.0000
      3 C3         -2.8497   29.3818   -6.8616 C.2       1 UNNAMED    0.0000
      4 O4         -1.9836   28.5159   -6.6616 O.2       1 UNNAMED    0.0000
      5 N5         -3.0208   29.9988   -8.0166 N.am      1 UNNAMED    0.0000
      6 C6         -2.1328   29.7288   -9.1527 C.3       1 UNNAMED    0.0000
      7 C7         -0.7549   30.0020   -8.5407 C.2       1 UNNAMED    0.0000
      8 O8          0.0842   29.0951   -8.4267 O.co2     1 UNNAMED    -.5000
      9 C9         -2.5360   30.6378  -10.3307 C.3       1 UNNAMED    0.0000
     10 C10        -2.0160   30.1308  -11.6817 C.ar      1 UNNAMED    0.0000
     11 C11        -0.7120   30.4939  -12.0598 C.ar      1 UNNAMED    0.0000
     12 C12        -2.8120   29.4117  -12.5376 C.ar      1 UNNAMED    0.0000
     13 C13        -0.2121   30.0279  -13.3448 C.ar      1 UNNAMED    0.0000
     14 C14        -2.3330   28.9517  -13.7996 C.ar      1 UNNAMED    0.0000
     15 C15        -1.0330   29.3268  -14.1607 C.ar      1 UNNAMED    0.0000
     16 O16        -0.5700   28.9058  -15.3877 O.3       1 UNNAMED    0.0000
     17 O17        -0.5410   31.2470   -8.1568 O.co2     1 UNNAMED    -.5000
@<TRIPOS>BOND
     1    1    2 1    
     2    2    3 1    
     3    3    4 2    
     4    3    5 am   
     5    5    6 1    
     6    6    7 1    
     7    6    9 1    
     8    7    8 ar   
     9    7   17 ar   
    10    9   10 1    
    11   10   11 ar   
    12   10   12 ar   
    13   11   13 ar   
    14   12   14 ar   
    15   13   15 ar   
    16   14   15 ar   
    17   15   16 1    
@<TRIPOS>SUBSTRUCTURE
     1 UNNAMED     1 PERM              0 ****  ****    0 ROOT 
@<TRIPOS>NORMAL
@<TRIPOS>FF_PBC
FORCE_FIELD_SETUP_FEATURE Force Field Setup information
v1.0  0 0.000000 0.000000 0.000000 0.000000 0.000000 0.000000 NONE 0 0 0 0 0 0 0 0 0 0 0 0 0
@<TRIPOS>MOLECULE
GAMMA CHYMOTRYPSIN (E.C.3.4.21.1) COMPLEX WITH
   14    14     2     0     3
PROTEIN
NO_CHARGES


@<TRIPOS>DICT
PROTEIN PROTEIN
@<TRIPOS>ATOM
      1 CB         38.4440   77.5740   83.7640 C.3       1 SER195      0.0000 DICT
      2 OG         38.8100   77.2570   85.1130 O.3       1 SER195      0.0000 DICT
      3 O          36.7220   76.6530   84.0180 O.2       2 CIN246      0.0000 
      4 C          37.3070   76.9220   85.2060 C.2       2 CIN246      0.0000 
      5 CA         36.8030   76.8580   86.7130 C.2       2 CIN246      0.0000 
      6 CB1        37.7910   77.2600   87.8150 C.2       2 CIN246      0.0000 
      7 CB2        35.4090   76.4340   86.5830 C.3       2 CIN246      0.0000 
      8 CG         37.6790   77.2420   89.3730 C.ar      2 CIN246      0.0000 
      9 CD1        36.4650   76.8840   90.0230 C.ar      2 CIN246      0.0000 
     10 CE1        36.3300   76.8650   91.3620 C.ar      2 CIN246      0.0000 
     11 CZ         37.3580   77.2820   92.1730 C.ar      2 CIN246      0.0000 
     12 CE2        38.6610   77.6980   91.6110 C.ar      2 CIN246      0.0000 
     13 CD2        38.8110   77.6480   90.0900 C.ar      2 CIN246      0.0000 
     14 OH         40.1010   78.0450   89.5820 O.3       2 CIN246      0.0000 
@<TRIPOS>BOND
     1    2    4 1    
     2    1    2 1    DICT
     3    3    4 2    
     4    4    5 1    
     5    5    6 2    
     6    5    7 1    
     7    6    8 1    
     8    8    9 ar   
     9    8   13 ar   
    10    9   10 ar   
    11   10   11 ar   
    12   11   12 ar   
    13   12   13 ar   
    14   13   14 1    
@<TRIPOS>SUBSTRUCTURE
     1 SER195      1 RESIDUE           1 A     SER     1 ROOT 
     2 CIN246      3 GROUP             0 A     ****    1  
@<TRIPOS>MOLECULE
NEV
   20    23     1     0     0
SMALL
NO_CHARGES


@<TRIPOS>ATOM
      1 N1        143.0160  -22.7150   72.8630 N.ar      1 NEV1        0.0000 
      2 C2        142.8580  -21.6710   73.6980 C.ar      1 NEV1        0.0000 
      3 C3        142.8470  -21.7930   75.0650 C.ar      1 NEV1        0.0000 
      4 C4        143.0830  -23.0200   75.6540 C.ar      1 NEV1        0.0000 
      5 C4A       143.3340  -24.1020   74.7800 C.ar      1 NEV1        0.0000 
      6 N5        143.7610  -25.3730   75.3120 N.am      1 NEV1        0.0000 
      7 C6        143.3270  -26.6870   75.0180 C.2       1 NEV1        0.0000 
      8 C6A       142.3230  -26.7570   73.9070 C.ar      1 NEV1        0.0000 
      9 C7        141.3540  -27.7340   74.0530 C.ar      1 NEV1        0.0000 
     10 C8        140.4690  -27.9900   73.0120 C.ar      1 NEV1        0.0000 
     11 C9        140.6260  -27.2810   71.8500 C.ar      1 NEV1        0.0000 
     12 N10       141.5490  -26.3160   71.6690 N.ar      1 NEV1        0.0000 
     13 C10       142.3740  -26.0430   72.7040 C.ar      1 NEV1        0.0000 
     14 N11       143.3350  -25.0040   72.5140 N.pl3     1 NEV1        0.0000 
     15 C11       143.2350  -23.9060   73.4150 C.ar      1 NEV1        0.0000 
     16 C12       143.0600  -23.1750   77.1590 C.3       1 NEV1        0.0000 
     17 O13       143.7250  -27.6030   75.5880 O.2       1 NEV1        0.0000 
     18 C14       143.6010  -24.6810   71.1370 C.3       1 NEV1        0.0000 
     19 C15       144.4170  -25.6460   70.3980 C.3       1 NEV1        0.0000 
     20 C16       145.0040  -24.3370   70.8120 C.3       1 NEV1        0.0000 
@<TRIPOS>BOND
     1    1    2 ar   
     2    1   15 ar   
     3    2    3 ar   
     4    3    4 ar   
     5    4    5 ar   
     6    4   16 1    
     7    5    6 1    
     8    5   15 ar   
     9    6    7 am   
    10    7    8 1    
    11    7   17 2    
    12    8    9 ar   
    13    8   13 ar   
    14    9   10 ar   
    15   10   11 ar   
    16   11   12 ar   
    17   12   13 ar   
    18   13   14 1    
    19   14   15 1    
    20   14   18 1    
    21   18   19 1    
    22   18   20 1    
    23   19   20 1    
@<TRIPOS>SUBSTRUCTURE
     1 NEV1        1 PERM              0 ****  ****    0 ROOT 
#	Name:			BEN
#	Creation time:		Fri Nov 14 16:52:46 1997

#	Modification time:	Fri Nov 14 16:52:46 1997

@<TRIPOS>MOLECULE
BEN
    9     9     1     0     0
SMALL
NO_CHARGES


@<TRIPOS>ATOM
      1 C1         -1.8530   14.3110   16.6580 C.ar      1 BEN1        0.0000 
      2 C2         -2.1070   15.6530   16.7580 C.ar      1 BEN1        0.0000 
      3 C3         -1.7740   16.3410   17.9320 C.ar      1 BEN1        0.0000 
      4 C4         -1.1750   15.6620   19.0050 C.ar      1 BEN1        0.0000 
      5 C5         -0.9140   14.2950   18.8850 C.ar      1 BEN1        0.0000 
      6 C6         -1.2570   13.6340   17.7080 C.ar      1 BEN1        0.0000 
      7 C7         -2.1930   13.6270   15.4960 C.2       1 BEN1        0.0000 
      8 N1         -2.7970   14.2350   14.4910 N.pl3     1 BEN1        0.0000 
      9 N2         -1.7620   12.3910   15.3090 N.pl3     1 BEN1        0.0000 
@<TRIPOS>BOND
     1    1    2 ar   
     2    1    6 ar   
     3    1    7 1    
     4    2    3 ar   
     5    3    4 ar   
     6    4    5 ar   
     7    5    6 ar   
     8    7    8 2    
     9    7    9 1    
@<TRIPOS>SUBSTRUCTURE
     1 BEN1        1 PERM              0 ****  ****    0 ROOT 
#	Name:			<unnamed>
#	Creation time:		Fri Jan 20 15:54:39 1995

#	Modification time:	Fri Jan 20 16:25:45 1995

